New Loadshape.EVShape_1 npts=43200 sinterval=2 mult=(file=autos\auto_nocontrol_1.dss) useactual=no
New Loadshape.EVShape_2 npts=43200 sinterval=2 mult=(file=autos\auto_nocontrol_2.dss) useactual=no
New Loadshape.EVShape_3 npts=43200 sinterval=2 mult=(file=autos\auto_nocontrol_3.dss) useactual=no
New Loadshape.EVShape_4 npts=43200 sinterval=2 mult=(file=autos\auto_nocontrol_4.dss) useactual=no
New Loadshape.EVShape_5 npts=43200 sinterval=2 mult=(file=autos\auto_nocontrol_5.dss) useactual=no
New Loadshape.EVShape_6 npts=43200 sinterval=2 mult=(file=autos\auto_nocontrol_6.dss) useactual=no
New Loadshape.EVShape_7 npts=43200 sinterval=2 mult=(file=autos\auto_nocontrol_7.dss) useactual=no
New Loadshape.EVShape_8 npts=43200 sinterval=2 mult=(file=autos\auto_nocontrol_8.dss) useactual=no
New Loadshape.EVShape_9 npts=43200 sinterval=2 mult=(file=autos\auto_nocontrol_9.dss) useactual=no
New Loadshape.EVShape_10 npts=43200 sinterval=2 mult=(file=autos\auto_nocontrol_10.dss) useactual=no
New Loadshape.EVShape_11 npts=43200 sinterval=2 mult=(file=autos\auto_nocontrol_11.dss) useactual=no
New Loadshape.EVShape_12 npts=43200 sinterval=2 mult=(file=autos\auto_nocontrol_12.dss) useactual=no
New Loadshape.EVShape_13 npts=43200 sinterval=2 mult=(file=autos\auto_nocontrol_13.dss) useactual=no
New Loadshape.EVShape_14 npts=43200 sinterval=2 mult=(file=autos\auto_nocontrol_14.dss) useactual=no
New Loadshape.EVShape_15 npts=43200 sinterval=2 mult=(file=autos\auto_nocontrol_1.dss) useactual=no
New Loadshape.EVShape_16 npts=43200 sinterval=2 mult=(file=autos\auto_nocontrol_2.dss) useactual=no
New Loadshape.EVShape_17 npts=43200 sinterval=2 mult=(file=autos\auto_nocontrol_3.dss) useactual=no
New Loadshape.EVShape_18 npts=43200 sinterval=2 mult=(file=autos\auto_nocontrol_4.dss) useactual=no
New Loadshape.EVShape_19 npts=43200 sinterval=2 mult=(file=autos\auto_nocontrol_5.dss) useactual=no
New Loadshape.EVShape_20 npts=43200 sinterval=2 mult=(file=autos\auto_nocontrol_6.dss) useactual=no
New Loadshape.EVShape_21 npts=43200 sinterval=2 mult=(file=autos\auto_nocontrol_7.dss) useactual=no
New Loadshape.EVShape_22 npts=43200 sinterval=2 mult=(file=autos\auto_nocontrol_8.dss) useactual=no
New Loadshape.EVShape_23 npts=43200 sinterval=2 mult=(file=autos\auto_nocontrol_9.dss) useactual=no
New Loadshape.EVShape_24 npts=43200 sinterval=2 mult=(file=autos\auto_nocontrol_10.dss) useactual=no
New Loadshape.EVShape_25 npts=43200 sinterval=2 mult=(file=autos\auto_nocontrol_11.dss) useactual=no
New Loadshape.EVShape_26 npts=43200 sinterval=2 mult=(file=autos\auto_nocontrol_12.dss) useactual=no
New Loadshape.EVShape_27 npts=43200 sinterval=2 mult=(file=autos\auto_nocontrol_13.dss) useactual=no
New Loadshape.EVShape_28 npts=43200 sinterval=2 mult=(file=autos\auto_nocontrol_14.dss) useactual=no
New Loadshape.EVShape_29 npts=43200 sinterval=2 mult=(file=autos\auto_nocontrol_1.dss) useactual=no
New Loadshape.EVShape_30 npts=43200 sinterval=2 mult=(file=autos\auto_nocontrol_2.dss) useactual=no
New Loadshape.EVShape_31 npts=43200 sinterval=2 mult=(file=autos\auto_nocontrol_3.dss) useactual=no
New Loadshape.EVShape_32 npts=43200 sinterval=2 mult=(file=autos\auto_nocontrol_4.dss) useactual=no
New Loadshape.EVShape_33 npts=43200 sinterval=2 mult=(file=autos\auto_nocontrol_5.dss) useactual=no
New Loadshape.EVShape_34 npts=43200 sinterval=2 mult=(file=autos\auto_nocontrol_6.dss) useactual=no
New Loadshape.EVShape_35 npts=43200 sinterval=2 mult=(file=autos\auto_nocontrol_7.dss) useactual=no
New Loadshape.EVShape_36 npts=43200 sinterval=2 mult=(file=autos\auto_nocontrol_8.dss) useactual=no
New Loadshape.EVShape_37 npts=43200 sinterval=2 mult=(file=autos\auto_nocontrol_9.dss) useactual=no
New Loadshape.EVShape_38 npts=43200 sinterval=2 mult=(file=autos\auto_nocontrol_10.dss) useactual=no
New Loadshape.EVShape_39 npts=43200 sinterval=2 mult=(file=autos\auto_nocontrol_11.dss) useactual=no
New Loadshape.EVShape_40 npts=43200 sinterval=2 mult=(file=autos\auto_nocontrol_12.dss) useactual=no
New Loadshape.EVShape_41 npts=43200 sinterval=2 mult=(file=autos\auto_nocontrol_13.dss) useactual=no
New Loadshape.EVShape_42 npts=43200 sinterval=2 mult=(file=autos\auto_nocontrol_14.dss) useactual=no
New Loadshape.EVShape_43 npts=43200 sinterval=2 mult=(file=autos\auto_nocontrol_1.dss) useactual=no
New Loadshape.EVShape_44 npts=43200 sinterval=2 mult=(file=autos\auto_nocontrol_2.dss) useactual=no
New Loadshape.EVShape_45 npts=43200 sinterval=2 mult=(file=autos\auto_nocontrol_3.dss) useactual=no
New Loadshape.EVShape_46 npts=43200 sinterval=2 mult=(file=autos\auto_nocontrol_4.dss) useactual=no
New Loadshape.EVShape_47 npts=43200 sinterval=2 mult=(file=autos\auto_nocontrol_5.dss) useactual=no
New Loadshape.EVShape_48 npts=43200 sinterval=2 mult=(file=autos\auto_nocontrol_6.dss) useactual=no
New Loadshape.EVShape_49 npts=43200 sinterval=2 mult=(file=autos\auto_nocontrol_7.dss) useactual=no
New Loadshape.EVShape_50 npts=43200 sinterval=2 mult=(file=autos\auto_nocontrol_8.dss) useactual=no
New Loadshape.EVShape_51 npts=43200 sinterval=2 mult=(file=autos\auto_nocontrol_9.dss) useactual=no
New Loadshape.EVShape_52 npts=43200 sinterval=2 mult=(file=autos\auto_nocontrol_10.dss) useactual=no
New Loadshape.EVShape_53 npts=43200 sinterval=2 mult=(file=autos\auto_nocontrol_11.dss) useactual=no
New Loadshape.EVShape_54 npts=43200 sinterval=2 mult=(file=autos\auto_nocontrol_12.dss) useactual=no
New Loadshape.EVShape_55 npts=43200 sinterval=2 mult=(file=autos\auto_nocontrol_13.dss) useactual=no